
#######################################################################
#
#                 Cambridge Crystallographic Data Centre
#                                CCDC 
#
#######################################################################
#
# If this CIF has been generated from an entry in the Cambridge 
# Structural Database, then it will include bibliographic, chemical, 
# crystal, experimental, refinement or atomic coordinate data resulting 
# from the CCDC's data processing and validation procedures.
#
#######################################################################

data_BISMEV05
_symmetry_cell_setting           monoclinic
_symmetry_space_group_name_H-M   'P 21/n'
_symmetry_Int_Tables_number      14
_space_group_name_Hall           '-P 2yn'
loop_
_symmetry_equiv_pos_site_id
_symmetry_equiv_pos_as_xyz
1 x,y,z
2 1/2-x,1/2+y,1/2-z
3 -x,-y,-z
4 1/2+x,1/2-y,1/2+z
_cell_length_a                   6.7254(2)
_cell_length_b                   13.2572(4)
_cell_length_c                   8.0529(2)
_cell_angle_alpha                90
_cell_angle_beta                 98.603(2)
_cell_angle_gamma                90
_cell_volume                     709.918
loop_
_atom_site_label
_atom_site_type_symbol
_atom_site_fract_x
_atom_site_fract_y
_atom_site_fract_z
N1 N 0.08494131401723 0.3971575277757 0.1412221516887
N2 N -0.2948152441630 0.1953216261203 0.08314761147975
O1 O -0.1025178362337 0.5129386430518 0.2618576066364
O2 O -0.02771878003599 0.2211844912093 0.2879586615951
C1 C 0.06233113164091 0.4771855189301 0.2411870305112
C2 C 0.2694383527750 0.5122259436782 0.3216718018815
C3 C 0.4153794040760 0.4566709170926 0.2232076930610
C4 C 0.2938843901531 0.3662839676376 0.1408970074013
C5 C -0.08349191397990 0.3410114954445 0.05686011444195
C6 C -0.1329684997330 0.2466113387160 0.1541558443478
H1 H 0.2828912173358 0.5941966095192 0.3160539295783
H2 H 0.2867581098306 0.4903968594120 0.4541488501381
H3 H 0.4589006270621 0.5067505555078 0.1272144307897
H4 H 0.5544461392622 0.4331647528927 0.3007486163745
H5 H 0.3211060555488 0.3516632266484 0.01254375545686
H6 H 0.3240298943905 0.2967667015694 0.2139791093320
H7 H -0.2147089622581 0.3906098715728 0.03959740225344
H8 H -0.05268537452501 0.3186757698179 -0.06772478062848
H1N H -0.3364649034841 0.1310735326993 0.1402002292296
H2N H -0.3771321208014 0.2190326584822 -0.02705065457016
#END
